;MADE BY EPANET-JS [4c58289b]
[JUNCTIONS]
;Id	Elevation
J1	40.9
J107	35.4
J67	51.9
J68	53.5
J69	41.2
J7	35.7
J70	33
J71	40.6
J72	50.2
J73	58.6
J74	52.9
J75	49
J108	37.4
J76	49.4
J77	40.4
J78	42.2
J79	61.6
J8	52.4
J80	39
J81	47.9
J82	60.7
J83	57
J84	43
J109	43.3
J85	28.6
J86	63.3
J87	38.4
J88	40.2
J89	45.7
J9	53.3
J90	45.4
J91	26.1
J92	50.4
J93	43.7
J11	56.2
J94	53.9
J95	28.4
J96	56.4
J97	56.2
J98	40.7
J99	49.6
J12	35.6
J13	54.7
J14	47.9
J15	64.7
J16	32.9
J17	30.7
J10	58.8
J18	39.7
J19	56.5
J2	59.9
J20	59.8
J21	57.4
J22	47.4
J23	56.5
J110	36.6
J24	41.9
J111	37.2
J136	40.8
J100	54.6
J25	41.4
J112	26.3
J26	37.8
J113	26.6
J114	27.4
J115	23.5
J27	56.2
J116	21.6
J117	22.3
J118	25.9
J101	48.7
J119	25.5
J28	54.2
J120	28.5
J121	30.2
J122	29.9
J29	37.2
J123	29.4
J124	21.3
J125	22.2
J126	19.2
J102	60.6
J3	36.4
J30	33.1
J127	34.7
J128	38.8
J129	36.1
J31	39.2
J130	36.7
J131	34.8
J32	52.5
J132	36.9
J103	57
J33	71.9
J133	29.6
J134	30.6
J34	56.2
J135	30.7
J35	53.3
J36	39.4
J37	58.9
J38	58.3
J39	62.1
J104	53.4
J4	29.7
J40	34.5
J41	44
J42	54
J43	56.4
J44	56.8
J45	54.4
J46	59.8
J47	56.1
J48	57.8
J105	49.5
J49	52.3
J5	48.9
J50	35.4
J51	61.7
J52	37.9
J53	34.8
J54	31.2
J55	30
J56	58.5
J57	40.7
J106	37.7
J58	52.6
J59	39.8
J6	42.8
J60	52.9
J61	35.2
J62	54.8
J63	39.1
J64	48.5
J65	41.4
J66	64

[RESERVOIRS]
;Id	Head	Pattern
R2	47.7

[TANKS]
;Id	Elevation	InitLevel	MinLevel	MaxLevel	Diameter	MinVol
T1	79	5	0	7.5	20	0	*	NO

[PIPES]
;Id	Start	End	Length	Diameter	Roughness	MinorLoss	Status
P1	J43	J27	31.93	50	85	0	Open
P2	J29	J63	59.62	100	85	0	Open
P4	J86	J82	131.52	200	85	0	Open
P5	J28	J42	21.23	63	85	0	Open
P6	J91	J87	361.57	150	85	0	Open
P7	J32	J104	28.01	100	85	0	Open
P8	J75	J76	14.52	100	85	0	Open
P9	J61	J107	36.35	100	85	0	Open
P11	J12	J4	81.55	63	85	0	Open
P12	J79	J66	53.44	100	85	0	Open
P13	J88	J30	167.11	100	85	0	Open
P14	J42	J74	77.46	50	85	0	Open
P15	J70	J95	47.57	150	85	0	Open
P16	J84	J90	83.48	63	85	0	Open
P18	J24	J31	38.87	100	85	0	Open
P19	J64	J93	54.61	150	85	0	Open
P20	J35	J9	104.45	100	85	0	Open
P21	J9	J81	78.07	100	85	0	Open
P22	J29	J36	49.79	100	85	0	Open
P23	J49	J62	65.62	100	85	0	Open
P24	J5	J60	64.85	100	85	0	Open
P25	J8	J35	36.63	100	85	0	Open
P26	J99	J81	90.87	100	85	0	Open
P27	J69	J50	189.48	150	85	0	Open
P28	J106	J52	8.73	100	85	0	Open
P29	J78	J1	42.04	100	85	0	Open
P30	J44	J68	171.33	100	85	0	Open
P31	J38	J20	74.58	63	85	0	Open
P32	J69	J84	94.99	100	85	0	Open
P33	J81	J75	19.12	100	85	0	Open
P34	J93	J70	103.64	150	85	0	Open
P35	J30	J85	114.02	100	85	0	Open
P36	J101	J5	116.25	100	85	0	Open
P37	J53	J54	90.16	63	85	0	Open
P38	J62	J28	39.93	100	85	0	Open
P39	J77	J18	111.95	100	85	0	Open
P40	J95	J17	26.42	100	85	0	Open
P41	J18	J26	99.31	100	85	0	Open
P42	J37	J79	82.22	100	85	0	Open
P43	J37	J83	66.55	63	85	0	Open
P44	J87	J80	133.83	100	85	0	Open
P45	J106	J29	68.7	100	85	0	Open
P46	J48	J38	18.8	100	85	0	Open
P47	J32	J92	147.53	63	85	0	Open
P48	J67	J32	23.84	100	85	0	Open
P49	J68	J22	144.8	100	85	0	Open
P50	J77	J98	77.56	100	85	0	Open
P51	J61	J3	42.03	100	85	0	Open
P52	J38	J96	72.9	63	85	0	Open
P53	J35	J58	59.55	100	85	0	Open
P54	J51	J46	44.92	100	85	0	Open
P55	J39	J73	42.24	100	85	0	Open
P56	J105	J101	16.7	100	85	0	Open
P57	J88	J6	39.36	63	85	0	Open
P58	J104	J39	133.7	100	85	0	Open
P59	J39	J15	158.24	63	85	0	Open
P60	J72	J49	155.06	100	85	0	Open
P61	J82	J56	35.48	200	85	0	Open
P62	J31	J12	44.67	100	85	0	Open
P63	J80	J71	84.34	50	85	0	Open
P64	J56	J21	29.48	200	85	0	Open
P65	J48	J46	87.12	100	85	0	Open
P66	J58	J94	110.48	100	85	0	Open
P67	J82	J102	86.74	100	85	0	Open
P68	J97	J13	140.73	100	85	0	Open
P69	J80	J16	80.31	100	85	0	Open
P71	J60	J44	72.25	100	85	0	Open
P72	J67	J47	101.2	150	85	0	Open
P73	J104	J100	100.57	63	85	0	Open
P74	J16	J40	77.48	50	85	0	Open
P75	J93	J24	39.66	100	85	0	Open
P76	J64	J105	228.15	150	85	0	Open
P77	J52	J18	47.37	100	85	0	Open
P78	J7	J24	63.98	63	85	0	Open
P79	J105	J67	90.38	150	85	0	Open
P80	J46	J79	51.64	100	85	0	Open
P81	J29	J61	52.8	100	85	0	Open
P82	J73	J11	192.57	100	85	0	Open
P83	J84	J78	46.64	100	85	0	Open
P84	J23	J34	80.65	100	85	0	Open
P85	J33	J86	99.05	200	85	0	Open
P86	J94	J28	10.16	100	85	0	Open
P87	J22	J88	71.32	100	85	0	Open
P88	J78	J41	149.36	63	85	0	Open
P89	J21	J97	29.5	200	85	0	Open
P90	J68	J44	80.12	100	85	0	Open
P91	J55	J91	88.08	150	85	0	Open
P92	J11	J47	37.71	100	85	0	Open
P93	J47	J69	319.68	150	85	0	Open
P94	J62	J23	53.58	100	85	0	Open
P95	J12	J53	37.9	100	85	0	Open
P96	J10	J43	28.33	63	85	0	Open
P97	J73	J11	46.28	100	85	0	Open
P98	J43	J45	34.67	50	85	0	Open
P99	J10	J19	67.28	100	85	0	Open
P100	J14	J57	160.73	100	85	0	Open
P101	J6	J89	126.77	63	85	0	Open
P102	J23	J48	57.64	100	85	0	Open
P103	J30	J25	112.46	100	85	0	Open
P104	J89	J109	45.14	50	85	0	Open
P105	J58	J72	64.11	100	85	0	Open
P106	J34	J37	82.5	100	85	0	Open
P107	J14	J99	29.75	100	85	0	Open
P108	J34	J103	92.27	100	85	0	Open
P109	J108	J87	117.51	150	85	0	Open
P110	J64	J14	18.9	100	85	0	Open
P111	J98	J59	35.72	100	85	0	Open
P112	J95	J85	182.01	150	85	0	Open
P113	J17	J65	117.52	100	85	0	Open
P114	J16	J55	181.94	100	85	0	Open
P115	J97	J8	36.35	200	85	0	Open
P116	J21	J10	60.04	100	85	0	Open
P117	J56	J2	126.66	100	85	0	Open
P118	J98	J52	67.19	100	85	0	Open
P119	J53	J31	133.65	100	85	0	Open
P120	J8	J64	76.98	200	85	0	Open
P121	J5	J22	101.26	100	85	0	Open
P122	J76	J51	301.81	100	85	0	Open
P10	J106	J110	58.71	100	130	0	Open
P123	J110	J50	26.75	150	130	0	Open
P124	J110	J111	115.57	150	130	0	Open
P17	T1	J33	31.7	200	85	0	Open
P125	J91	J112	15	150	130	0	Open
P126	J113	J114	44.48	150	130	0	Open
P127	J114	J115	174.61	100	130	0	Open
P128	J115	J116	127.56	100	130	0	Open
P129	J116	J117	199.82	100	130	0	Open
P130	J117	J118	256.58	100	130	0	Open
P131	J118	J119	40.69	100	130	0	Open
P132	J119	J91	15.22	100	130	0	Closed
P133	J114	J120	25.66	150	130	0	Open
P134	J120	J121	33.38	150	130	0	Open
P135	J121	J115	232.08	50	130	0	Open
P136	J121	J122	127.87	150	130	0	Open
P137	J122	J123	18.49	100	130	0	Open
P138	J123	J124	141.93	100	130	0	Open
P139	J124	J125	134.92	50	130	0	Open
P140	J124	J126	135.83	100	130	0	Open
P141	J126	J116	269.36	100	130	0	Open
P143	J127	J128	400.51	100	130	0	Open
P144	J128	J129	78.36	100	130	0	Open
P145	J129	J130	44.22	100	130	0	Open
P146	J130	J131	378.07	100	130	0	Open
P148	J130	J131	561.23	100	130	0	Open
P3	J50	J132	59.9	150	130	0	Open
P149	J132	J108	90.31	150	130	0	Open
P150	J132	J128	59.82	100	130	0	Open
P142	J127	J133	145.4	100	130	0	Open
P151	J133	J120	21.45	100	130	0	Closed
P147	J131	J134	117.46	100	130	0	Open
P152	J134	J122	23.95	100	130	0	Closed
P70	J85	J135	58.31	150	85	0	Open
P153	J135	J55	125.86	150	85	0	Open
P154	J63	J136	45.85	300	130	0	Open

[PUMPS]
;Id	Start	End	Properties
PU1	R2	J111	HEAD 138	SPEED 1

[VALVES]
;Id	Start	End	Diameter	Setting	MinorLoss
V1	J112	J113	150	PRV	26	0

[DEMANDS]
;Id	Demand	Pattern	Category
J1	0
J1	0.020606782407407407	epanetjs_customers
J107	0
J107	0.023427569444444442	epanetjs_customers
J67	0
J67	0.061184085648148145	epanetjs_customers
J68	0
J68	0.2621548032407407	epanetjs_customers
J69	0
J7	0
J7	0.03951070601851852	epanetjs_customers
J70	0
J70	0.006001643518518518	epanetjs_customers
J71	0
J71	0.09457166666666666	epanetjs_customers
J72	0
J72	0.09264015046296298	epanetjs_customers
J73	0
J73	0.2361871412037037	epanetjs_customers
J74	0
J74	0.030409050925925926	epanetjs_customers
J75	0.047292
J108	0
J108	0.08670435185185185	epanetjs_customers
J76	0
J76	0.09481278935185186	epanetjs_customers
J77	0
J77	0.11240395833333332	epanetjs_customers
J78	0
J78	0.13643359953703704	epanetjs_customers
J79	0
J79	0.11560560185185186	epanetjs_customers
J8	0
J8	0.0809508449074074	epanetjs_customers
J80	0
J80	0.2215498263888889	epanetjs_customers
J81	0
J81	0.08644134259259259	epanetjs_customers
J82	0
J82	0.1077023726851852	epanetjs_customers
J83	0
J83	0.049447488425925924	epanetjs_customers
J84	0
J84	0.05480310185185185	epanetjs_customers
J109	0
J109	0.04479292824074074	epanetjs_customers
J85	0
J85	0.09733923611111112	epanetjs_customers
J86	0
J86	0.08319994212962963	epanetjs_customers
J87	0
J87	0.41818079861111107	epanetjs_customers
J88	0
J88	0.11601344907407408	epanetjs_customers
J89	0
J89	0.06866385416666665	epanetjs_customers
J9	0
J9	0.11895925925925926	epanetjs_customers
J90	0
J90	0.06954162037037037	epanetjs_customers
J91	0
J91	0.2739982986111111	epanetjs_customers
J92	0
J92	0.12930336805555556	epanetjs_customers
J93	0
J93	0.01120099537037037	epanetjs_customers
J11	0
J11	0.1627448148148148	epanetjs_customers
J94	0
J94	0.057300000000000004	epanetjs_customers
J95	0
J95	0.07616738425925926	epanetjs_customers
J96	0
J96	0.053606226851851846	epanetjs_customers
J97	0
J97	0.07711203703703703	epanetjs_customers
J98	0
J98	0.0647463425925926	epanetjs_customers
J99	0
J99	0.020219895833333335	epanetjs_customers
J12	0
J12	0.09562165509259259	epanetjs_customers
J13	0
J13	0.06959296296296295	epanetjs_customers
J14	0
J14	0.11512054398148149	epanetjs_customers
J15	0
J15	0.1434744675925926	epanetjs_customers
J16	0
J16	0.17542134259259254	epanetjs_customers
J17	0
J17	0.09890032407407406	epanetjs_customers
J10	0
J10	0.01426380787037037	epanetjs_customers
J18	0
J18	0.07556902777777777	epanetjs_customers
J19	0
J19	0.0063926967592592586	epanetjs_customers
J2	0
J2	0.09066940972222222	epanetjs_customers
J20	0
J20	0.07571541666666666	epanetjs_customers
J21	0
J21	0.044369155092592594	epanetjs_customers
J22	0
J22	0.20612946759259257	epanetjs_customers
J23	0
J23	0.056070972222222216	epanetjs_customers
J110	0
J110	0.06906791666666666	epanetjs_customers
J24	0
J24	0.058009884259259265	epanetjs_customers
J111	0
J136	0
J136	0.03709922453703704	epanetjs_customers
J100	0
J100	0.06803893518518518	epanetjs_customers
J25	0
J25	0.11409138888888888	epanetjs_customers
J112	0
J26	0
J26	0.029999652777777774	epanetjs_customers
J113	0
J114	0
J114	0.011663206018518517	epanetjs_customers
J115	0
J115	0.03876961805555555	epanetjs_customers
J27	0
J27	0.037970879629629625	epanetjs_customers
J116	0
J116	0.010681273148148148	epanetjs_customers
J117	0.21
J118	0
J118	0.01087212962962963	epanetjs_customers
J101	0
J101	0.053361631944444446	epanetjs_customers
J119	0.2
J28	0
J28	0.005828842592592593	epanetjs_customers
J120	0
J121	0
J121	0.007356805555555556	epanetjs_customers
J122	0.45
J29	0
J29	0.05043471064814815	epanetjs_customers
J123	0
J123	0.016598055555555553	epanetjs_customers
J124	0
J124	0.036463217592592585	epanetjs_customers
J125	0.04
J126	0
J126	0.006545173611111112	epanetjs_customers
J102	0
J102	0.018455787037037038	epanetjs_customers
J3	0
J3	0.019803425925925926	epanetjs_customers
J30	0
J30	0.19077759259259258	epanetjs_customers
J127	0
J127	0.28198202546296297	epanetjs_customers
J128	0
J128	0.2322793865740741	epanetjs_customers
J129	0
J31	0
J31	0.12007921296296295	epanetjs_customers
J130	0
J130	0.24285049768518516	epanetjs_customers
J131	0
J131	0.23467881944444444	epanetjs_customers
J32	0
J32	0.02839365740740741	epanetjs_customers
J132	0
J103	0
J103	0.12040766203703701	epanetjs_customers
J33	0
J133	0
J133	0.01178394675925926	epanetjs_customers
J134	0
J134	0.004893657407407407	epanetjs_customers
J34	0
J34	0.12452011574074076	epanetjs_customers
J135	0
J135	0.016673472222222225	epanetjs_customers
J35	0
J35	0.06576362268518518	epanetjs_customers
J36	0
J36	0.025537418981481482	epanetjs_customers
J37	0
J37	0.16578982638888887	epanetjs_customers
J38	0
J38	0.04734075231481481	epanetjs_customers
J39	0
J39	0.20680212962962963	epanetjs_customers
J104	0
J104	0.14405239583333332	epanetjs_customers
J4	0
J4	0.043892870370370374	epanetjs_customers
J40	0
J40	0.09447642361111111	epanetjs_customers
J41	0
J41	0.11870384259259259	epanetjs_customers
J42	0
J42	0.022852511574074075	epanetjs_customers
J43	0
J43	0.011755185185185184	epanetjs_customers
J44	0
J44	0.2740918171296296	epanetjs_customers
J45	0
J45	0.09462636574074074	epanetjs_customers
J46	0
J46	0.07091200231481481	epanetjs_customers
J47	0
J47	0.09812327546296297	epanetjs_customers
J48	0
J48	0.008821782407407408	epanetjs_customers
J105	0
J105	0.14554084490740737	epanetjs_customers
J49	0
J49	0.1709730324074074	epanetjs_customers
J5	0
J5	0.17696905092592588	epanetjs_customers
J50	0
J51	0
J51	0.09712339120370371	epanetjs_customers
J52	0
J52	0.0337149074074074	epanetjs_customers
J53	0
J53	0.16549587962962964	epanetjs_customers
J54	0
J54	0.07636601851851851	epanetjs_customers
J55	0
J55	0.06564119212962963	epanetjs_customers
J56	0
J56	0.11647247685185186	epanetjs_customers
J57	0
J57	0.09736896990740741	epanetjs_customers
J106	0
J106	0.024029733796296297	epanetjs_customers
J58	0
J58	0.0934777662037037	epanetjs_customers
J59	0
J59	0.027455891203703703	epanetjs_customers
J6	0
J6	0.1521113078703704	epanetjs_customers
J60	0
J60	0.1864742824074074	epanetjs_customers
J61	0
J61	0.055114363425925926	epanetjs_customers
J62	0
J62	0.023862013888888887	epanetjs_customers
J63	0
J63	0.0374725	epanetjs_customers
J64	0
J64	0.12059953703703702	epanetjs_customers
J65	0
J65	0.07860762731481481	epanetjs_customers
J66	0
J66	0.03980793981481481	epanetjs_customers

[STATUS]
;Id	Status
PU1	Closed

[CURVES]
;Id	X	Y
138	20	40

[PATTERNS]
;Id	Multiplier
epanetjs_customers	1

[TIMES]
Duration	0

[REPORT]
Status	FULL
Summary	No
Page	0

[OPTIONS]
Quality	NONE
Unbalanced	CONTINUE 10
Accuracy	0.001
Units	LPS
Headloss	H-W
Demand Multiplier	1

[BACKDROP]
Units	DEGREES

[COORDINATES]
;Node	X-coord	Y-coord
J1	-4.3827615	55.9108906
J107	-4.3858608	55.9098722
J67	-4.3821754	55.9137082
J68	-4.3836639	55.9123495
J69	-4.3853594	55.9114018
J7	-4.3778147	55.9149107
J70	-4.3769994	55.9150671
J71	-4.3813705	55.9112697
J72	-4.3804741	55.9176744
J73	-4.3837581	55.9144311
J74	-4.3778188	55.9170176
J75	-4.3773771	55.9164594
J108	-4.3844947	55.9103995
J76	-4.3774883	55.9165742
J77	-4.3888445	55.9102775
J78	-4.3832828	55.9110576
J79	-4.3746975	55.9185121
J8	-4.3794679	55.9163479
J80	-4.3811463	55.9110659
J81	-4.3776565	55.9163884
J82	-4.3813427	55.9158301
J83	-4.3761601	55.9182887
J84	-4.3839678	55.9112161
J109	-4.380235	55.9133366
J85	-4.3773018	55.9134429
J86	-4.3822209	55.9169048
J87	-4.3826092	55.9104042
J88	-4.380364	55.9121024
J89	-4.380501	55.9135137
J9	-4.3781637	55.9170297
J90	-4.3835359	55.9116001
J91	-4.3770567	55.911059
J92	-4.3808363	55.9145812
J93	-4.3785993	55.915284
J11	-4.3838571	55.9140189
J94	-4.3784201	55.9175255
J95	-4.3762794	55.9149611
J96	-4.376963	55.9175717
J97	-4.3799979	55.9162114
J98	-4.3876431	55.910351
J99	-4.3789573	55.9160191
R2	-4.3869324	55.9090409
T1	-4.383709	55.9165505
J12	-4.3786567	55.9142354
J13	-4.3809159	55.9152283
J14	-4.3787828	55.9157701
J15	-4.3847221	55.9152284
J16	-4.3798578	55.9110625
J17	-4.3761609	55.9151892
J10	-4.3808208	55.9165986
J18	-4.3876978	55.9095069
J19	-4.3813095	55.9171134
J2	-4.3817183	55.9170316
J20	-4.3748317	55.917894
J21	-4.3804314	55.9161048
J22	-4.3815022	55.9121382
J23	-4.3769283	55.9178649
J110	-4.3861633	55.9097403
J24	-4.3788355	55.9149609
J111	-4.3865855	55.9088676
J136	-4.3865804	55.9111067
J100	-4.3828823	55.9140062
J25	-4.3798066	55.9125817
J112	-4.376993	55.9109289
J26	-4.3862805	55.9092442
J113	-4.3769182	55.9107726
J114	-4.3767325	55.9103864
J115	-4.3740172	55.9107734
J27	-4.3801832	55.9164533
J116	-4.3720311	55.9110505
J117	-4.3734932	55.9126117
J118	-4.376982	55.9114491
J101	-4.3807547	55.9139754
J119	-4.3768208	55.9110945
J28	-4.3782648	55.9174977
J120	-4.3766543	55.9101598
J121	-4.3765341	55.9098673
J122	-4.376001	55.9087568
J29	-4.3866532	55.9103413
J123	-4.3757118	55.908794
J124	-4.3734937	55.9086849
J125	-4.3725079	55.9094909
J126	-4.3713146	55.9086683
J102	-4.3820806	55.9151863
J3	-4.3855037	55.9105196
J30	-4.3785695	55.9129792
J127	-4.378898	55.9094392
J128	-4.3849421	55.90928
J129	-4.3849303	55.9085839
J31	-4.3788874	55.9146148
J130	-4.3842406	55.9085196
J131	-4.3781821	55.9084114
J32	-4.3821107	55.9139191
J132	-4.3850163	55.9097341
J103	-4.3774333	55.9189582
J33	-4.3837019	55.9168356
J133	-4.3769897	55.9101165
J134	-4.3763651	55.9086879
J34	-4.3772851	55.9185517
J135	-4.3775932	55.9129447
J35	-4.3796973	55.9166512
J36	-4.3870068	55.9105321
J37	-4.3760077	55.9185788
J38	-4.3760247	55.9178413
J39	-4.3834001	55.914749
J104	-4.3820654	55.9141697
J4	-4.3773879	55.9142133
J40	-4.3800963	55.9113228
J41	-4.3832604	55.9114373
J42	-4.3781459	55.9173188
J43	-4.3804133	55.9167099
J44	-4.3835461	55.9130638
J45	-4.3805982	55.9169976
J46	-4.3746659	55.9180693
J47	-4.3837039	55.9137873
J48	-4.3760594	55.918009
J105	-4.381008	55.9140244
J49	-4.3781671	55.9181967
J5	-4.3813719	55.9130458
J50	-4.3857677	55.9098125
J51	-4.3739454	55.9180829
J52	-4.3872331	55.9098308
J53	-4.3788033	55.9139247
J54	-4.3780533	55.9138742
J55	-4.3774084	55.9118242
J56	-4.3808663	55.9160031
J57	-4.3762984	55.9158654
J106	-4.3870957	55.9098154
J58	-4.3800589	55.9171469
J59	-4.387245	55.9105317
J6	-4.3803735	55.9124513
J60	-4.3824108	55.9130788
J61	-4.3858552	55.9101974
J62	-4.3777113	55.9176659
J63	-4.3861229	55.9107862
J64	-4.3790582	55.9156988
J65	-4.3780235	55.9153417
J66	-4.3738638	55.9186122

[VERTICES]
;link	X-coord	Y-coord
P2	-4.3863686	55.9106103
P4	-4.3817747	55.9163089
P5	-4.3781532	55.9173309
P6	-4.3777553	55.9109442
P6	-4.3783214	55.9108025
P6	-4.379044	55.9105594
P6	-4.3796945	55.9104244
P6	-4.3805014	55.9103907
P6	-4.3818023	55.9103974
P7	-4.382081	55.9140694
P9	-4.3858776	55.9101161
P9	-4.3858552	55.9100004
P11	-4.3784086	55.9142765
P11	-4.378121	55.9143113
P11	-4.3778954	55.9142955
P11	-4.377636	55.9142544
P12	-4.3741748	55.9185491
P13	-4.3802071	55.912095
P13	-4.3800783	55.9120857
P13	-4.3798107	55.9120774
P13	-4.3796885	55.9120876
P13	-4.3795406	55.9121148
P13	-4.3794035	55.9121601
P13	-4.3792995	55.9122212
P13	-4.3792119	55.9123138
P13	-4.3790559	55.9124699
P13	-4.3788872	55.9126417
P13	-4.3786511	55.9128875
P13	-4.3785806	55.9129648
P14	-4.3780749	55.9173303
P14	-4.3780619	55.9173465
P14	-4.3780843	55.9173758
P14	-4.3780768	55.9174093
P14	-4.3779834	55.9174276
P14	-4.3779311	55.9174161
P14	-4.3778291	55.9172977
P14	-4.3776712	55.9170905
P14	-4.3776625	55.9170602
P14	-4.3777195	55.9170446
P15	-4.3766473	55.9150376
P15	-4.376374	55.9150111
P16	-4.3838263	55.9114206
P16	-4.383871	55.9114665
P16	-4.3839678	55.9115124
P16	-4.384005	55.9116042
P16	-4.3839454	55.9116627
P16	-4.3838412	55.9116752
P18	-4.3788879	55.914839
P19	-4.3789488	55.9155689
P19	-4.3788376	55.9154954
P19	-4.3787264	55.9153752
P20	-4.3794094	55.9167256
P20	-4.3788724	55.9168497
P20	-4.3784627	55.916949
P21	-4.3778861	55.9166665
P21	-4.3777639	55.9164963
P22	-4.3868144	55.9103787
P22	-4.3867525	55.9104315
P22	-4.3866964	55.9104943
P22	-4.3866846	55.9105224
P22	-4.3866964	55.9105307
P22	-4.3867141	55.9105389
P22	-4.3867554	55.9105389
P23	-4.3781036	55.9181146
P23	-4.3779768	55.9179435
P23	-4.3778658	55.9178103
P24	-4.3818217	55.9130608
P25	-4.3796254	55.9165519
P26	-4.3778639	55.9163282
P27	-4.3854528	55.9112702
P27	-4.3854859	55.9111898
P27	-4.3853645	55.9111094
P27	-4.3852432	55.9110352
P27	-4.3852211	55.9108311
P27	-4.3854635	55.9103037
P27	-4.3855975	55.9100683
P27	-4.3856772	55.9098815
P29	-4.3831487	55.9109741
P29	-4.3830668	55.9108948
P29	-4.3829551	55.910899
P29	-4.3828807	55.9109073
P30	-4.3839156	55.9130878
P30	-4.3841726	55.9130908
P30	-4.3843386	55.9130638
P30	-4.384419	55.9129708
P30	-4.38451	55.9128507
P30	-4.3845261	55.9127367
P30	-4.3844993	55.9125956
P30	-4.3844511	55.9124816
P30	-4.3843922	55.9124305
P30	-4.3842904	55.9123915
P30	-4.3841726	55.9123795
P30	-4.3839905	55.9123615
P30	-4.3837978	55.9123555
P31	-4.3757427	55.9178555
P31	-4.3752222	55.9178738
P32	-4.3850772	55.9114248
P32	-4.3849283	55.9113664
P32	-4.3847645	55.9112579
P32	-4.3844518	55.9112537
P32	-4.3841763	55.9112453
P34	-4.3783972	55.9152143
P34	-4.3780188	55.9151496
P34	-4.3775932	55.9151083
P35	-4.3783746	55.9131957
P35	-4.378212	55.9133341
P35	-4.3780734	55.9134624
P35	-4.3779288	55.9135097
P35	-4.3777541	55.9135367
P35	-4.3776035	55.9135198
P36	-4.3806779	55.9138916
P36	-4.3807233	55.9138006
P36	-4.3809115	55.913666
P36	-4.3811063	55.9134696
P36	-4.3812036	55.9133969
P36	-4.3813075	55.9133023
P36	-4.3813399	55.9131568
P37	-4.378668	55.9138615
P37	-4.3784706	55.9138015
P37	-4.3782451	55.9137793
P37	-4.3781041	55.9137667
P37	-4.3779462	55.9137857
P37	-4.3778503	55.9138268
P37	-4.3778165	55.9138742
P37	-4.3778503	55.9139089
P37	-4.3779123	55.9139216
P37	-4.3780026	55.9138931
P38	-4.3780283	55.9175882
P38	-4.3781829	55.9175526
P39	-4.3887915	55.9102294
P39	-4.3885348	55.9100198
P39	-4.3882056	55.9097915
P39	-4.3879433	55.9096445
P41	-4.387536	55.9093849
P41	-4.387363	55.9093005
P41	-4.3869891	55.9092536
P41	-4.3865204	55.9092379
P42	-4.3757364	55.9185491
P42	-4.3753063	55.9185195
P42	-4.3750879	55.9185084
P43	-4.3760137	55.9184902
P43	-4.3760309	55.9184251
P43	-4.3760309	55.9183093
P43	-4.3760266	55.9182043
P43	-4.3760244	55.9181681
P43	-4.3760696	55.9181596
P43	-4.3761192	55.9181596
P43	-4.376145	55.9181946
P43	-4.3761515	55.9182562
P44	-4.3824953	55.9106946
P44	-4.3821219	55.9109512
P44	-4.3818208	55.9110524
P45	-4.3870884	55.9100223
P45	-4.3870159	55.9100692
P45	-4.3868819	55.910113
P45	-4.3867759	55.9102225
P46	-4.3760319	55.9179163
P47	-4.3819327	55.9138987
P47	-4.3816697	55.9138987
P47	-4.3815119	55.913935
P47	-4.3813096	55.9140438
P47	-4.3811721	55.9141753
P47	-4.3811033	55.9143227
P47	-4.3811518	55.9144179
P47	-4.3812206	55.9145222
P47	-4.3811883	55.9146016
P47	-4.3811114	55.9146288
P47	-4.3809536	55.9146401
P48	-4.3821512	55.9138261
P49	-4.3834878	55.9123443
P49	-4.3834975	55.9122878
P49	-4.383478	55.9122642
P49	-4.3834195	55.9122514
P49	-4.3827564	55.9122204
P49	-4.3818788	55.9121895
P49	-4.3817033	55.9121822
P50	-4.3886861	55.9103325
P50	-4.3884788	55.9103565
P50	-4.3881531	55.9103805
P50	-4.3879392	55.9103842
P50	-4.3877681	55.9103749
P51	-4.3857548	55.9103038
P51	-4.3856097	55.9104258
P52	-4.3760219	55.917775
P52	-4.3761304	55.917692
P52	-4.3763039	55.9176616
P52	-4.3765027	55.9176616
P53	-4.379926	55.9169608
P55	-4.383474	55.9146967
P55	-4.3835712	55.9146443
P57	-4.3803236	55.9123581
P58	-4.3820542	55.9143675
P58	-4.3820931	55.914483
P58	-4.3821826	55.9145877
P58	-4.3823615	55.9146988
P58	-4.3825016	55.9147599
P58	-4.3827505	55.9148013
P58	-4.3829994	55.9148165
P58	-4.3831667	55.9148013
P58	-4.3832562	55.9147817
P59	-4.3835107	55.914858
P59	-4.3835722	55.9149341
P59	-4.3836498	55.9149722
P59	-4.3837793	55.9150121
P59	-4.3838731	55.915081
P59	-4.3839928	55.9151245
P59	-4.3842257	55.9151317
P59	-4.3845427	55.9151172
P59	-4.3846412	55.9150997
P59	-4.3847026	55.9150616
P59	-4.3847835	55.9150363
P59	-4.384887	55.9150417
P59	-4.3849614	55.9150689
P59	-4.3850197	55.915136
P59	-4.3850164	55.9152103
P59	-4.3849259	55.9152429
P59	-4.3848288	55.915252
P60	-4.3800755	55.9177581
P60	-4.3796824	55.9178419
P60	-4.3793336	55.9179226
P60	-4.3786471	55.9180839
P61	-4.3810674	55.9159152
P62	-4.3788484	55.9145704
P62	-4.3787808	55.9144282
P62	-4.3787131	55.9143113
P63	-4.3811559	55.9111899
P63	-4.3811559	55.9112589
P63	-4.3810645	55.9113092
P63	-4.3810539	55.9113663
P63	-4.3810944	55.9114294
P63	-4.38117	55.9114541
P63	-4.3812755	55.9114639
P63	-4.3813688	55.9114521
P63	-4.3814338	55.9114097
P63	-4.3814409	55.9113545
P63	-4.3814251	55.9113141
P64	-4.3806019	55.9160526
P65	-4.3755727	55.9180406
P65	-4.3751475	55.9180549
P66	-4.3797378	55.9172214
P66	-4.3791786	55.9173517
P66	-4.3788519	55.9174231
P66	-4.3785474	55.9175006
P67	-4.3816552	55.9156587
P67	-4.38186	55.9154865
P67	-4.3820097	55.9153452
P68	-4.3799007	55.9160638
P68	-4.3798408	55.9159505
P68	-4.3798595	55.9158392
P68	-4.3799906	55.9157384
P68	-4.3802229	55.9156734
P68	-4.3805001	55.9155936
P68	-4.3807848	55.9153354
P69	-4.3803597	55.9110669
P71	-4.3831605	55.9131088
P71	-4.3833908	55.9131118
P72	-4.3825338	55.9137215
P72	-4.3829185	55.9137215
P72	-4.3831836	55.9137069
P72	-4.3835371	55.9136952
P72	-4.3836826	55.9137331
P73	-4.3826528	55.9141413
P73	-4.3827617	55.914174
P73	-4.3828745	55.9142263
P73	-4.3830067	55.9142307
P73	-4.3830845	55.9141936
P73	-4.3831312	55.9141326
P73	-4.3831312	55.9140825
P73	-4.3830962	55.9140432
P73	-4.3830184	55.9140105
P74	-4.3798638	55.9112443
P74	-4.3798583	55.9112631
P74	-4.3797965	55.9112873
P74	-4.3797656	55.911322
P74	-4.3797517	55.9113636
P74	-4.3797795	55.9114294
P74	-4.3798274	55.9114519
P74	-4.3798985	55.9114632
P74	-4.3799572	55.9114666
P74	-4.3800128	55.9114623
P74	-4.3800592	55.9114467
P74	-4.3801102	55.9114051
P74	-4.3801118	55.9113653
P75	-4.3786087	55.9152085
P75	-4.3787042	55.9151315
P75	-4.3787937	55.9150445
P76	-4.3794629	55.9155776
P76	-4.3797568	55.9154177
P76	-4.380336	55.9148654
P76	-4.3806385	55.9145748
P77	-4.3872678	55.9097507
P77	-4.387454	55.9096293
P78	-4.3781072	55.9149208
P78	-4.3784415	55.9149308
P78	-4.3786863	55.9149408
P79	-4.3812186	55.9138089
P79	-4.3813797	55.9137681
P79	-4.38165	55.9137302
P79	-4.3817748	55.9136807
P80	-4.3746864	55.918187
P80	-4.3747427	55.9182243
P80	-4.3747632	55.9183908
P80	-4.3747069	55.9184425
P81	-4.3865025	55.9102881
P81	-4.3862737	55.9102475
P81	-4.3859501	55.9102162
P82	-4.383904	55.914474
P82	-4.3841349	55.9145326
P82	-4.3843334	55.9145407
P82	-4.3844886	55.9145245
P82	-4.3847232	55.9144679
P82	-4.3848711	55.9144194
P82	-4.3849686	55.9143284
P82	-4.3849938	55.9142131
P82	-4.3849794	55.9141079
P82	-4.384918	55.9140432
P82	-4.3848459	55.9139764
P82	-4.3847701	55.9139501
P82	-4.3846799	55.9139582
P82	-4.3845572	55.9139987
P82	-4.3843912	55.914029
P82	-4.384153	55.9140351
P83	-4.3836476	55.9111494
P83	-4.3833944	55.9111076
P84	-4.3770535	55.91804
P84	-4.3772123	55.9182513
P84	-4.3773049	55.9184627
P85	-4.3836212	55.9169234
P85	-4.3830706	55.916942
P85	-4.3825722	55.9169553
P87	-4.3810567	55.9121133
P87	-4.3804705	55.9120895
P88	-4.3829477	55.9111744
P88	-4.382836	55.9111911
P88	-4.3826945	55.911141
P88	-4.3824786	55.9111285
P88	-4.3822999	55.9112161
P88	-4.3823073	55.9113413
P88	-4.3823743	55.9114081
P88	-4.3824935	55.9114457
P88	-4.3827094	55.9114498
P88	-4.3829849	55.9114457
P90	-4.3836532	55.9125356
P90	-4.3836317	55.9127787
P90	-4.383605	55.9129618
P91	-4.3773466	55.9116035
P91	-4.3772849	55.911452
P92	-4.3836514	55.9140088
P92	-4.3836694	55.91394
P93	-4.3839429	55.9137975
P93	-4.3840972	55.9137512
P93	-4.3842185	55.9136523
P93	-4.3843122	55.9136091
P93	-4.3845989	55.9135411
P93	-4.3848966	55.9133959
P93	-4.3850785	55.9132599
P93	-4.3851722	55.9130993
P93	-4.3852396	55.9129011
P93	-4.3853443	55.9126756
P93	-4.3854435	55.9124129
P93	-4.3854752	55.9121989
P93	-4.3854862	55.9119857
P93	-4.3854146	55.9115779
P94	-4.3773584	55.9177514
P95	-4.3786342	55.9141017
P95	-4.3786849	55.9139974
P96	-4.380663	55.9166521
P97	-4.3837735	55.914398
P97	-4.3838202	55.9141691
P97	-4.3838513	55.9140514
P98	-4.3804735	55.9167802
P98	-4.3804596	55.9168097
P99	-4.3808745	55.9166615
P99	-4.3809604	55.916677
P99	-4.3809964	55.9166848
P100	-4.3785631	55.9157988
P100	-4.3781909	55.9159098
P100	-4.3778425	55.9159719
P100	-4.3775337	55.9159808
P100	-4.3772565	55.9159408
P100	-4.3769081	55.915892
P100	-4.3766389	55.9158743
P101	-4.3804678	55.9125258
P101	-4.3805841	55.9126377
P101	-4.3805897	55.9127464
P101	-4.3805675	55.9129111
P101	-4.3805343	55.9130726
P101	-4.3804622	55.9132031
P101	-4.3804068	55.9132745
P101	-4.3804345	55.9133584
P101	-4.3805232	55.913405
P101	-4.3805398	55.9134733
P102	-4.3763771	55.9179946
P102	-4.3761363	55.9180233
P103	-4.3787292	55.9130239
P103	-4.3789906	55.9130931
P103	-4.3791101	55.9131073
P103	-4.3792641	55.9130879
P103	-4.3793492	55.9130351
P103	-4.3794825	55.9129192
P103	-4.3795951	55.9127968
P103	-4.3797123	55.9126783
P104	-4.3803735	55.913551
P104	-4.3802405	55.9135386
P104	-4.380174	55.9135013
P104	-4.3801186	55.9134485
P104	-4.3801352	55.9133926
P105	-4.3803413	55.9175068
P105	-4.3804298	55.9176185
P106	-4.3770532	55.9186196
P106	-4.3767289	55.9186493
P106	-4.376451	55.9186307
P106	-4.3761334	55.9186011
P107	-4.3788885	55.9159124
P108	-4.3774532	55.9186801
P108	-4.3775921	55.9188099
P108	-4.3776848	55.9188358
P108	-4.3777906	55.918884
P108	-4.3778171	55.9189767
P108	-4.3777575	55.9190286
P108	-4.377612	55.9190472
P108	-4.3775259	55.9190398
P111	-4.3875937	55.910445
P111	-4.3875148	55.9104967
P111	-4.3873799	55.9105151
P112	-4.3764321	55.9146833
P112	-4.3767349	55.9142437
P112	-4.3769058	55.9139304
P112	-4.3771543	55.9135604
P112	-4.3772397	55.913456
P113	-4.3764098	55.915228
P113	-4.3766726	55.9152512
P113	-4.3770645	55.9152822
P113	-4.3775717	55.9153029
P113	-4.377793	55.9153236
P114	-4.3792075	55.9110712
P114	-4.3787674	55.9112313
P114	-4.3782191	55.9114866
P114	-4.377725	55.911742
P114	-4.3775397	55.9118155
P115	-4.3796432	55.9162999
P116	-4.3807107	55.9164485
P117	-4.3809398	55.9160383
P118	-4.3874588	55.910268
P118	-4.3873404	55.9101832
P118	-4.3872384	55.9100485
P119	-4.3789767	55.9138796
P119	-4.3791775	55.9138621
P119	-4.3793113	55.9138871
P119	-4.3794006	55.9139546
P119	-4.3794586	55.9140171
P119	-4.3794631	55.9140696
P119	-4.3794095	55.9141822
P119	-4.3793515	55.9143172
P119	-4.3792935	55.9144198
P119	-4.3792355	55.9145123
P119	-4.3791953	55.9145598
P119	-4.3790168	55.9145948
P120	-4.3790718	55.9157946
P121	-4.3814438	55.9126075
P121	-4.3814762	55.9122983
P122	-4.3770663	55.9167017
P122	-4.3764572	55.9169013
P122	-4.3758654	55.9170849
P122	-4.3754459	55.9172072
P122	-4.3749862	55.9173328
P122	-4.3742729	55.9175097
P122	-4.3739626	55.9176031
P122	-4.3738937	55.9178027
P123	-4.3860171	55.909793
P123	-4.3858885	55.9098151
P124	-4.3861901	55.9096517
P124	-4.3860962	55.9095658
P124	-4.3859973	55.9094882
P124	-4.3859281	55.90943
P124	-4.3859627	55.9093663
P124	-4.3862642	55.9090477
P124	-4.3864273	55.9089368
P129	-4.3722327	55.9115379
P129	-4.3724092	55.9118134
P129	-4.373115	55.9123644
P130	-4.375346	55.9118629
P130	-4.3758376	55.9116298
P135	-4.3738041	55.9102875
P138	-4.3756454	55.9087368
P138	-4.3753132	55.908711
P138	-4.3748737	55.9087081
P139	-4.3734937	55.9092208
P139	-4.373427	55.9093621
P139	-4.3728934	55.9094452
P140	-4.3724486	55.9086724
P141	-4.3713849	55.9093747
P141	-4.3715924	55.9099729
P141	-4.3718889	55.9106501
P143	-4.378827	55.90928
P143	-4.3800689	55.909174
P143	-4.3813464	55.9091939
P143	-4.3832152	55.9092469
P144	-4.385013	55.9087298
P145	-4.3846073	55.9085196
P146	-4.3812836	55.9084533
P146	-4.3789416	55.9083936
P146	-4.3783739	55.9083936
P148	-4.3842704	55.9081903